*SPEF "IEEE 1481-1998"
*DESIGN "full_FIR"
*DATE "Tue Oct 13 12:25:55 2020"
*VENDOR "Cadence Design Systems, Inc."
*PROGRAM "Innovus"
*VERSION "17.11-s080_1"
*DESIGN_FLOW "COUPLING C" "PIN_CAP NONE" "NAME_SCOPE LOCAL"
*DIVIDER /
*DELIMITER :
*BUS_DELIMITER []
*T_UNIT 1 NS
*C_UNIT 1 PF
*R_UNIT 1 OHM
*L_UNIT 1 HENRY

// MMMC spef file for corner 'my_rc'

*NAME_MAP

*1 FE_OFN13_FIR_mult_42_G5_n247
*2 FE_OFN12_FIR_mult_42_G6_n247
*3 FE_OFN11_FIR_n235
*4 FE_OFN10_FIR_n235
*5 FE_OFN9_RST_n
*6 FE_OFN8_RST_n
*7 FE_OFN7_RST_n
*8 FE_OFN5_FIR_mult_42_n247
*9 FE_OFN4_FIR_mult_42_G2_n247
*10 FE_OFN3_FIR_mult_42_G7_n247
*11 FE_OFN2_controllo_n2
*12 FE_OFN1_controllo_n2
*13 FE_OFN0_controllo_n2
*14 DIN[7]
*15 DIN[6]
*16 DIN[5]
*17 DIN[4]
*18 DIN[3]
*19 DIN[2]
*20 DIN[1]
*21 DIN[0]
*22 b0[7]
*23 b0[6]
*24 b0[5]
*25 b0[4]
*26 b0[3]
*27 b0[2]
*28 b0[1]
*29 b0[0]
*30 b1[7]
*31 b1[6]
*32 b1[5]
*33 b1[4]
*34 b1[3]
*35 b1[2]
*36 b1[1]
*37 b1[0]
*38 b2[7]
*39 b2[6]
*40 b2[5]
*41 b2[4]
*42 b2[3]
*43 b2[2]
*44 b2[1]
*45 b2[0]
*46 b3[7]
*47 b3[6]
*48 b3[5]
*49 b3[4]
*50 b3[3]
*51 b3[2]
*52 b3[1]
*53 b3[0]
*54 b4[7]
*55 b4[6]
*56 b4[5]
*57 b4[4]
*58 b4[3]
*59 b4[2]
*60 b4[1]
*61 b4[0]
*62 b5[7]
*63 b5[6]
*64 b5[5]
*65 b5[4]
*66 b5[3]
*67 b5[2]
*68 b5[1]
*69 b5[0]
*70 b6[7]
*71 b6[6]
*72 b6[5]
*73 b6[4]
*74 b6[3]
*75 b6[2]
*76 b6[1]
*77 b6[0]
*78 b7[7]
*79 b7[6]
*80 b7[5]
*81 b7[4]
*82 b7[3]
*83 b7[2]
*84 b7[1]
*85 b7[0]
*86 b8[7]
*87 b8[6]
*88 b8[5]
*89 b8[4]
*90 b8[3]
*91 b8[2]
*92 b8[1]
*93 b8[0]
*94 DOUT[7]
*95 DOUT[6]
*96 DOUT[5]
*97 DOUT[4]
*98 DOUT[3]
*99 DOUT[2]
*100 DOUT[1]
*101 DOUT[0]
*102 CLK
*103 RST_n
*104 VIN
*105 VOUT
*106 EN_OUT_tmp
*107 FIR_n371
*108 FIR_n370
*109 FIR_n369
*110 FIR_n368
*111 FIR_n367
*112 FIR_n366
*113 FIR_n365
*114 FIR_n364
*115 FIR_n363
*116 FIR_n362
*117 FIR_n361
*118 FIR_n360
*119 FIR_n359
*120 FIR_n358
*121 FIR_n357
*122 FIR_n356
*123 FIR_n355
*124 FIR_n354
*125 FIR_n353
*126 FIR_n352
*127 FIR_n351
*128 FIR_n350
*129 FIR_n349
*130 FIR_n348
*131 FIR_n347
*132 FIR_n346
*133 FIR_n345
*134 FIR_n344
*135 FIR_n343
*136 FIR_n342
*137 FIR_n341
*138 FIR_n340
*139 FIR_n339
*140 FIR_n338
*141 FIR_n337
*142 FIR_n336
*143 FIR_n335
*144 FIR_n334
*145 FIR_n333
*146 FIR_n332
*147 FIR_n331
*148 FIR_n330
*149 FIR_n329
*150 FIR_n328
*151 FIR_n327
*152 FIR_n326
*153 FIR_n325
*154 FIR_n324
*155 FIR_n323
*156 FIR_n322
*157 FIR_n321
*158 FIR_n320
*159 FIR_n319
*160 FIR_n318
*161 FIR_n317
*162 FIR_n316
*163 FIR_n315
*164 FIR_n314
*165 FIR_n313
*166 FIR_n312
*167 FIR_n311
*168 FIR_n310
*169 FIR_n309
*170 FIR_n308
*171 FIR_n307
*172 FIR_n306
*173 FIR_n305
*174 FIR_n304
*175 FIR_n303
*176 FIR_n302
*177 FIR_n301
*178 FIR_n300
*179 FIR_n299
*180 FIR_n298
*181 FIR_n297
*182 FIR_n296
*183 FIR_n295
*184 FIR_n294
*185 FIR_n293
*186 FIR_n292
*187 FIR_n291
*188 FIR_n290
*189 FIR_n289
*190 FIR_n288
*191 FIR_n287
*192 FIR_n286
*193 FIR_n285
*194 FIR_n284
*195 FIR_n283
*196 FIR_n282
*197 FIR_n281
*198 FIR_n280
*199 FIR_n279
*200 FIR_n278
*201 FIR_n277
*202 FIR_n276
*203 FIR_n275
*204 FIR_n274
*205 FIR_n273
*206 FIR_n272
*207 FIR_n271
*208 FIR_n270
*209 FIR_n269
*210 FIR_n268
*211 FIR_n267
*212 FIR_n266
*213 FIR_n265
*214 FIR_n264
*215 FIR_n263
*216 FIR_n262
*217 FIR_n261
*218 FIR_n260
*219 FIR_n259
*220 FIR_n258
*221 FIR_n257
*222 FIR_n256
*223 FIR_n255
*224 FIR_n254
*225 FIR_n253
*226 FIR_n252
*227 FIR_n235
*228 FIR_n79
*229 FIR_n71
*230 FIR_n70
*231 FIR_n62
*232 FIR_n61
*233 FIR_n53
*234 FIR_n52
*235 FIR_n44
*236 FIR_n43
*237 FIR_n35
*238 FIR_n34
*239 FIR_n26
*240 FIR_n25
*241 FIR_n17
*242 FIR_n16
*243 FIR_n10
*244 FIR_x_sum_0__0_
*245 FIR_x_sum_0__1_
*246 FIR_x_sum_0__2_
*247 FIR_x_sum_0__3_
*248 FIR_x_sum_0__4_
*249 FIR_x_sum_0__5_
*250 FIR_x_sum_0__6_
*251 FIR_x_sum_0__7_
*252 FIR_x_sum_1__0_
*253 FIR_x_sum_1__1_
*254 FIR_x_sum_1__2_
*255 FIR_x_sum_1__3_
*256 FIR_x_sum_1__4_
*257 FIR_x_sum_1__5_
*258 FIR_x_sum_1__6_
*259 FIR_x_sum_1__7_
*260 FIR_x_sum_2__0_
*261 FIR_x_sum_2__1_
*262 FIR_x_sum_2__2_
*263 FIR_x_sum_2__3_
*264 FIR_x_sum_2__4_
*265 FIR_x_sum_2__5_
*266 FIR_x_sum_2__6_
*267 FIR_x_sum_2__7_
*268 FIR_x_sum_3__0_
*269 FIR_x_sum_3__1_
*270 FIR_x_sum_3__2_
*271 FIR_x_sum_3__3_
*272 FIR_x_sum_3__4_
*273 FIR_x_sum_3__5_
*274 FIR_x_sum_3__6_
*275 FIR_x_sum_3__7_
*276 FIR_x_sum_4__0_
*277 FIR_x_sum_4__1_
*278 FIR_x_sum_4__2_
*279 FIR_x_sum_4__3_
*280 FIR_x_sum_4__4_
*281 FIR_x_sum_4__5_
*282 FIR_x_sum_4__6_
*283 FIR_x_sum_4__7_
*284 FIR_x_sum_5__0_
*285 FIR_x_sum_5__1_
*286 FIR_x_sum_5__2_
*287 FIR_x_sum_5__3_
*288 FIR_x_sum_5__4_
*289 FIR_x_sum_5__5_
*290 FIR_x_sum_5__6_
*291 FIR_x_sum_5__7_
*292 FIR_x_sum_6__0_
*293 FIR_x_sum_6__1_
*294 FIR_x_sum_6__2_
*295 FIR_x_sum_6__3_
*296 FIR_x_sum_6__4_
*297 FIR_x_sum_6__5_
*298 FIR_x_sum_6__6_
*299 FIR_x_sum_6__7_
*300 FIR_n233
*301 FIR_n232
*302 FIR_n225
*303 FIR_n224
*304 FIR_n217
*305 FIR_n216
*306 FIR_n209
*307 FIR_n208
*308 FIR_n201
*309 FIR_n200
*310 FIR_n193
*311 FIR_n192
*312 FIR_n185
*313 FIR_n184
*314 FIR_n177
*315 FIR_n176
*316 FIR_n169
*317 FIR_n168
*318 FIR_n167
*319 FIR_n166
*320 FIR_n165
*321 FIR_n164
*322 FIR_n163
*323 FIR_n162
*324 FIR_n161
*325 FIR_n160
*326 FIR_n159
*327 FIR_n158
*328 FIR_n157
*329 FIR_n156
*330 FIR_n155
*331 FIR_n154
*332 FIR_n153
*333 FIR_n152
*334 FIR_n151
*335 FIR_n150
*336 FIR_n149
*337 FIR_n148
*338 FIR_n147
*339 FIR_n146
*340 FIR_n145
*341 FIR_n144
*342 FIR_n143
*343 FIR_n142
*344 FIR_n141
*345 FIR_n140
*346 FIR_n139
*347 FIR_n138
*348 FIR_n137
*349 FIR_n136
*350 FIR_n135
*351 FIR_n134
*352 FIR_n133
*353 FIR_n132
*354 FIR_n131
*355 FIR_n130
*356 FIR_n129
*357 FIR_n128
*358 FIR_n127
*359 FIR_n126
*360 FIR_n125
*361 FIR_n124
*362 FIR_n123
*363 FIR_n122
*364 FIR_n121
*365 FIR_n120
*366 FIR_n119
*367 FIR_n118
*368 FIR_n117
*369 FIR_n116
*370 FIR_n115
*371 FIR_n114
*372 FIR_n113
*373 FIR_n112
*374 FIR_n111
*375 FIR_n110
*376 FIR_n109
*377 FIR_n108
*378 FIR_n107
*379 FIR_n106
*380 FIR_n105
*381 FIR_n104
*382 FIR_n103
*383 FIR_n102
*384 FIR_n101
*385 FIR_n100
*386 FIR_n99
*387 FIR_n98
*388 FIR_n97
*389 FIR_n96
*390 FIR_n95
*391 FIR_n94
*392 FIR_n93
*393 FIR_n92
*394 FIR_n91
*395 FIR_n90
*396 FIR_n89
*397 FIR_n88
*398 FIR_n87
*399 FIR_n86
*400 FIR_n85
*401 FIR_n84
*402 FIR_n83
*403 FIR_n82
*404 FIR_n81
*405 FIR_n78
*406 FIR_n77
*407 FIR_n76
*408 FIR_n75
*409 FIR_n74
*410 FIR_n73
*411 FIR_n72
*412 FIR_n69
*413 FIR_n68
*414 FIR_n67
*415 FIR_n66
*416 FIR_n65
*417 FIR_n64
*418 FIR_n63
*419 FIR_n60
*420 FIR_n59
*421 FIR_n58
*422 FIR_n57
*423 FIR_n56
*424 FIR_n55
*425 FIR_n54
*426 FIR_n51
*427 FIR_n50
*428 FIR_n49
*429 FIR_n48
*430 FIR_n47
*431 FIR_n46
*432 FIR_n45
*433 FIR_n42
*434 FIR_n41
*435 FIR_n40
*436 FIR_n39
*437 FIR_n38
*438 FIR_n37
*439 FIR_n36
*440 FIR_n33
*441 FIR_n32
*442 FIR_n31
*443 FIR_n30
*444 FIR_n29
*445 FIR_n28
*446 FIR_n27
*447 FIR_n24
*448 FIR_n23
*449 FIR_n22
*450 FIR_n21
*451 FIR_n20
*452 FIR_n19
*453 FIR_n18
*454 FIR_n15
*455 FIR_n14
*456 FIR_n13
*457 FIR_n12
*458 FIR_n11
*459 FIR_n9
*460 FIR_n8
*461 FIR_n7
*462 FIR_n6
*463 FIR_n5
*464 FIR_n4
*465 FIR_n3
*466 FIR_n2
*467 FIR_n1
*468 FIR_x_sum_7__0_
*469 FIR_x_sum_7__1_
*470 FIR_x_sum_7__2_
*471 FIR_x_sum_7__3_
*472 FIR_x_sum_7__4_
*473 FIR_x_sum_7__5_
*474 FIR_x_sum_7__6_
*475 FIR_x_sum_7__7_
*476 FIR_x_multed_8__0_
*477 FIR_x_multed_8__1_
*478 FIR_x_multed_8__2_
*479 FIR_x_multed_8__3_
*480 FIR_x_multed_8__4_
*481 FIR_x_multed_8__5_
*482 FIR_x_multed_8__6_
*483 FIR_x_multed_8__7_
*484 FIR_x_multed_7__0_
*485 FIR_x_multed_7__1_
*486 FIR_x_multed_7__2_
*487 FIR_x_multed_7__3_
*488 FIR_x_multed_7__4_
*489 FIR_x_multed_7__5_
*490 FIR_x_multed_7__6_
*491 FIR_x_multed_7__7_
*492 FIR_x_multed_6__0_
*493 FIR_x_multed_6__1_
*494 FIR_x_multed_6__2_
*495 FIR_x_multed_6__3_
*496 FIR_x_multed_6__4_
*497 FIR_x_multed_6__5_
*498 FIR_x_multed_6__6_
*499 FIR_x_multed_6__7_
*500 FIR_x_multed_5__0_
*501 FIR_x_multed_5__1_
*502 FIR_x_multed_5__2_
*503 FIR_x_multed_5__3_
*504 FIR_x_multed_5__4_
*505 FIR_x_multed_5__5_
*506 FIR_x_multed_5__6_
*507 FIR_x_multed_5__7_
*508 FIR_x_multed_4__0_
*509 FIR_x_multed_4__1_
*510 FIR_x_multed_4__2_
*511 FIR_x_multed_4__3_
*512 FIR_x_multed_4__4_
*513 FIR_x_multed_4__5_
*514 FIR_x_multed_4__6_
*515 FIR_x_multed_4__7_
*516 FIR_x_multed_3__0_
*517 FIR_x_multed_3__1_
*518 FIR_x_multed_3__2_
*519 FIR_x_multed_3__3_
*520 FIR_x_multed_3__4_
*521 FIR_x_multed_3__5_
*522 FIR_x_multed_3__6_
*523 FIR_x_multed_3__7_
*524 FIR_x_multed_2__0_
*525 FIR_x_multed_2__1_
*526 FIR_x_multed_2__2_
*527 FIR_x_multed_2__3_
*528 FIR_x_multed_2__4_
*529 FIR_x_multed_2__5_
*530 FIR_x_multed_2__6_
*531 FIR_x_multed_2__7_
*532 FIR_x_multed_1__0_
*533 FIR_x_multed_1__1_
*534 FIR_x_multed_1__2_
*535 FIR_x_multed_1__3_
*536 FIR_x_multed_1__4_
*537 FIR_x_multed_1__5_
*538 FIR_x_multed_1__6_
*539 FIR_x_multed_1__7_
*540 FIR_x_multed_0__0_
*541 FIR_x_multed_0__1_
*542 FIR_x_multed_0__2_
*543 FIR_x_multed_0__3_
*544 FIR_x_multed_0__4_
*545 FIR_x_multed_0__5_
*546 FIR_x_multed_0__6_
*547 FIR_x_multed_0__7_
*548 FIR_x_mult_long_8__7_
*549 FIR_x_mult_long_8__8_
*550 FIR_x_mult_long_8__9_
*551 FIR_x_mult_long_8__10_
*552 FIR_x_mult_long_8__11_
*553 FIR_x_mult_long_8__12_
*554 FIR_x_mult_long_8__13_
*555 FIR_x_mult_long_8__14_
*556 FIR_x_mult_long_7__7_
*557 FIR_x_mult_long_7__8_
*558 FIR_x_mult_long_7__9_
*559 FIR_x_mult_long_7__10_
*560 FIR_x_mult_long_7__11_
*561 FIR_x_mult_long_7__12_
*562 FIR_x_mult_long_7__13_
*563 FIR_x_mult_long_7__14_
*564 FIR_x_mult_long_6__7_
*565 FIR_x_mult_long_6__8_
*566 FIR_x_mult_long_6__9_
*567 FIR_x_mult_long_6__10_
*568 FIR_x_mult_long_6__11_
*569 FIR_x_mult_long_6__12_
*570 FIR_x_mult_long_6__13_
*571 FIR_x_mult_long_6__14_
*572 FIR_x_mult_long_5__7_
*573 FIR_x_mult_long_5__8_
*574 FIR_x_mult_long_5__9_
*575 FIR_x_mult_long_5__10_
*576 FIR_x_mult_long_5__11_
*577 FIR_x_mult_long_5__12_
*578 FIR_x_mult_long_5__13_
*579 FIR_x_mult_long_5__14_
*580 FIR_x_mult_long_4__7_
*581 FIR_x_mult_long_4__8_
*582 FIR_x_mult_long_4__9_
*583 FIR_x_mult_long_4__10_
*584 FIR_x_mult_long_4__11_
*585 FIR_x_mult_long_4__12_
*586 FIR_x_mult_long_4__13_
*587 FIR_x_mult_long_4__14_
*588 FIR_x_mult_long_3__7_
*589 FIR_x_mult_long_3__8_
*590 FIR_x_mult_long_3__9_
*591 FIR_x_mult_long_3__10_
*592 FIR_x_mult_long_3__11_
*593 FIR_x_mult_long_3__12_
*594 FIR_x_mult_long_3__13_
*595 FIR_x_mult_long_3__14_
*596 FIR_x_mult_long_2__7_
*597 FIR_x_mult_long_2__8_
*598 FIR_x_mult_long_2__9_
*599 FIR_x_mult_long_2__10_
*600 FIR_x_mult_long_2__11_
*601 FIR_x_mult_long_2__12_
*602 FIR_x_mult_long_2__13_
*603 FIR_x_mult_long_2__14_
*604 FIR_x_mult_long_1__7_
*605 FIR_x_mult_long_1__8_
*606 FIR_x_mult_long_1__9_
*607 FIR_x_mult_long_1__10_
*608 FIR_x_mult_long_1__11_
*609 FIR_x_mult_long_1__12_
*610 FIR_x_mult_long_1__13_
*611 FIR_x_mult_long_1__14_
*612 FIR_x_mult_long_0__7_
*613 FIR_x_mult_long_0__8_
*614 FIR_x_mult_long_0__9_
*615 FIR_x_mult_long_0__10_
*616 FIR_x_mult_long_0__11_
*617 FIR_x_mult_long_0__12_
*618 FIR_x_mult_long_0__13_
*619 FIR_x_mult_long_0__14_
*620 FIR_add_5_root_add_0_root_add_56_G7_n1
*621 FIR_add_4_root_add_0_root_add_56_G7_n1
*622 FIR_add_3_root_add_0_root_add_56_G7_n1
*623 FIR_add_6_root_add_0_root_add_56_G7_n1
*624 FIR_add_7_root_add_0_root_add_56_G7_n1
*625 FIR_add_2_root_add_0_root_add_56_G7_n1
*626 FIR_add_1_root_add_0_root_add_56_G7_n1
*627 FIR_add_0_root_add_0_root_add_56_G7_n2
*628 FIR_mult_42_n274
*629 FIR_mult_42_n273
*630 FIR_mult_42_n272
*631 FIR_mult_42_n271
*632 FIR_mult_42_n270
*633 FIR_mult_42_n269
*634 FIR_mult_42_n268
*635 FIR_mult_42_n267
*636 FIR_mult_42_n266
*637 FIR_mult_42_n265
*638 FIR_mult_42_n264
*639 FIR_mult_42_n263
*640 FIR_mult_42_n262
*641 FIR_mult_42_n261
*642 FIR_mult_42_n260
*643 FIR_mult_42_n259
*644 FIR_mult_42_n258
*645 FIR_mult_42_n257
*646 FIR_mult_42_n256
*647 FIR_mult_42_n255
*648 FIR_mult_42_n254
*649 FIR_mult_42_n253
*650 FIR_mult_42_n252
*651 FIR_mult_42_n251
*652 FIR_mult_42_n250
*653 FIR_mult_42_n249
*654 FIR_mult_42_n248
*655 FIR_mult_42_n247
*656 FIR_mult_42_n246
*657 FIR_mult_42_n245
*658 FIR_mult_42_n244
*659 FIR_mult_42_n243
*660 FIR_mult_42_n242
*661 FIR_mult_42_n241
*662 FIR_mult_42_n240
*663 FIR_mult_42_n239
*664 FIR_mult_42_n238
*665 FIR_mult_42_n237
*666 FIR_mult_42_n236
*667 FIR_mult_42_n235
*668 FIR_mult_42_n234
*669 FIR_mult_42_n233
*670 FIR_mult_42_n232
*671 FIR_mult_42_n231
*672 FIR_mult_42_n230
*673 FIR_mult_42_n229
*674 FIR_mult_42_n228
*675 FIR_mult_42_n227
*676 FIR_mult_42_n226
*677 FIR_mult_42_n225
*678 FIR_mult_42_n224
*679 FIR_mult_42_n223
*680 FIR_mult_42_n222
*681 FIR_mult_42_n221
*682 FIR_mult_42_n220
*683 FIR_mult_42_n219
*684 FIR_mult_42_n218
*685 FIR_mult_42_n217
*686 FIR_mult_42_n216
*687 FIR_mult_42_n215
*688 FIR_mult_42_n214
*689 FIR_mult_42_n213
*690 FIR_mult_42_n212
*691 FIR_mult_42_n211
*692 FIR_mult_42_n210
*693 FIR_mult_42_n209
*694 FIR_mult_42_n208
*695 FIR_mult_42_n207
*696 FIR_mult_42_n206
*697 FIR_mult_42_n205
*698 FIR_mult_42_n204
*699 FIR_mult_42_n203
*700 FIR_mult_42_n202
*701 FIR_mult_42_n201
*702 FIR_mult_42_n200
*703 FIR_mult_42_n199
*704 FIR_mult_42_n198
*705 FIR_mult_42_n197
*706 FIR_mult_42_n101
*707 FIR_mult_42_n100
*708 FIR_mult_42_n99
*709 FIR_mult_42_n98
*710 FIR_mult_42_n97
*711 FIR_mult_42_n94
*712 FIR_mult_42_n93
*713 FIR_mult_42_n92
*714 FIR_mult_42_n91
*715 FIR_mult_42_n90
*716 FIR_mult_42_n88
*717 FIR_mult_42_n87
*718 FIR_mult_42_n86
*719 FIR_mult_42_n85
*720 FIR_mult_42_n84
*721 FIR_mult_42_n83
*722 FIR_mult_42_n82
*723 FIR_mult_42_n81
*724 FIR_mult_42_n79
*725 FIR_mult_42_n78
*726 FIR_mult_42_n76
*727 FIR_mult_42_n75
*728 FIR_mult_42_n74
*729 FIR_mult_42_n73
*730 FIR_mult_42_n69
*731 FIR_mult_42_n68
*732 FIR_mult_42_n56
*733 FIR_mult_42_n55
*734 FIR_mult_42_n54
*735 FIR_mult_42_n53
*736 FIR_mult_42_n52
*737 FIR_mult_42_n51
*738 FIR_mult_42_n50
*739 FIR_mult_42_n49
*740 FIR_mult_42_n48
*741 FIR_mult_42_n47
*742 FIR_mult_42_n46
*743 FIR_mult_42_n45
*744 FIR_mult_42_n44
*745 FIR_mult_42_n43
*746 FIR_mult_42_n42
*747 FIR_mult_42_n41
*748 FIR_mult_42_n40
*749 FIR_mult_42_n39
*750 FIR_mult_42_n38
*751 FIR_mult_42_n37
*752 FIR_mult_42_n36
*753 FIR_mult_42_n35
*754 FIR_mult_42_n34
*755 FIR_mult_42_n33
*756 FIR_mult_42_n32
*757 FIR_mult_42_n30
*758 FIR_mult_42_n29
*759 FIR_mult_42_n28
*760 FIR_mult_42_n27
*761 FIR_mult_42_n26
*762 FIR_mult_42_n25
*763 FIR_mult_42_n24
*764 FIR_mult_42_n23
*765 FIR_mult_42_n21
*766 FIR_mult_42_n20
*767 FIR_mult_42_n19
*768 FIR_mult_42_n18
*769 FIR_mult_42_n17
*770 FIR_mult_42_n16
*771 FIR_mult_42_n9
*772 FIR_mult_42_n8
*773 FIR_mult_42_n7
*774 FIR_mult_42_n6
*775 FIR_mult_42_n5
*776 FIR_mult_42_n4
*777 FIR_mult_42_n3
*778 FIR_mult_42_n2
*779 FIR_mult_42_G2_n274
*780 FIR_mult_42_G2_n273
*781 FIR_mult_42_G2_n272
*782 FIR_mult_42_G2_n271
*783 FIR_mult_42_G2_n270
*784 FIR_mult_42_G2_n269
*785 FIR_mult_42_G2_n268
*786 FIR_mult_42_G2_n267
*787 FIR_mult_42_G2_n266
*788 FIR_mult_42_G2_n265
*789 FIR_mult_42_G2_n264
*790 FIR_mult_42_G2_n263
*791 FIR_mult_42_G2_n262
*792 FIR_mult_42_G2_n261
*793 FIR_mult_42_G2_n260
*794 FIR_mult_42_G2_n259
*795 FIR_mult_42_G2_n258
*796 FIR_mult_42_G2_n257
*797 FIR_mult_42_G2_n256
*798 FIR_mult_42_G2_n255
*799 FIR_mult_42_G2_n254
*800 FIR_mult_42_G2_n253
*801 FIR_mult_42_G2_n252
*802 FIR_mult_42_G2_n251
*803 FIR_mult_42_G2_n250
*804 FIR_mult_42_G2_n249
*805 FIR_mult_42_G2_n248
*806 FIR_mult_42_G2_n247
*807 FIR_mult_42_G2_n246
*808 FIR_mult_42_G2_n245
*809 FIR_mult_42_G2_n244
*810 FIR_mult_42_G2_n243
*811 FIR_mult_42_G2_n242
*812 FIR_mult_42_G2_n241
*813 FIR_mult_42_G2_n240
*814 FIR_mult_42_G2_n239
*815 FIR_mult_42_G2_n238
*816 FIR_mult_42_G2_n237
*817 FIR_mult_42_G2_n236
*818 FIR_mult_42_G2_n235
*819 FIR_mult_42_G2_n234
*820 FIR_mult_42_G2_n233
*821 FIR_mult_42_G2_n232
*822 FIR_mult_42_G2_n231
*823 FIR_mult_42_G2_n230
*824 FIR_mult_42_G2_n229
*825 FIR_mult_42_G2_n228
*826 FIR_mult_42_G2_n227
*827 FIR_mult_42_G2_n226
*828 FIR_mult_42_G2_n225
*829 FIR_mult_42_G2_n224
*830 FIR_mult_42_G2_n223
*831 FIR_mult_42_G2_n222
*832 FIR_mult_42_G2_n221
*833 FIR_mult_42_G2_n220
*834 FIR_mult_42_G2_n219
*835 FIR_mult_42_G2_n218
*836 FIR_mult_42_G2_n217
*837 FIR_mult_42_G2_n216
*838 FIR_mult_42_G2_n215
*839 FIR_mult_42_G2_n214
*840 FIR_mult_42_G2_n213
*841 FIR_mult_42_G2_n212
*842 FIR_mult_42_G2_n211
*843 FIR_mult_42_G2_n210
*844 FIR_mult_42_G2_n209
*845 FIR_mult_42_G2_n208
*846 FIR_mult_42_G2_n207
*847 FIR_mult_42_G2_n206
*848 FIR_mult_42_G2_n205
*849 FIR_mult_42_G2_n204
*850 FIR_mult_42_G2_n203
*851 FIR_mult_42_G2_n202
*852 FIR_mult_42_G2_n201
*853 FIR_mult_42_G2_n200
*854 FIR_mult_42_G2_n199
*855 FIR_mult_42_G2_n198
*856 FIR_mult_42_G2_n197
*857 FIR_mult_42_G2_n101
*858 FIR_mult_42_G2_n100
*859 FIR_mult_42_G2_n99
*860 FIR_mult_42_G2_n98
*861 FIR_mult_42_G2_n97
*862 FIR_mult_42_G2_n94
*863 FIR_mult_42_G2_n93
*864 FIR_mult_42_G2_n92
*865 FIR_mult_42_G2_n91
*866 FIR_mult_42_G2_n90
*867 FIR_mult_42_G2_n88
*868 FIR_mult_42_G2_n87
*869 FIR_mult_42_G2_n86
*870 FIR_mult_42_G2_n85
*871 FIR_mult_42_G2_n84
*872 FIR_mult_42_G2_n83
*873 FIR_mult_42_G2_n82
*874 FIR_mult_42_G2_n81
*875 FIR_mult_42_G2_n79
*876 FIR_mult_42_G2_n78
*877 FIR_mult_42_G2_n76
*878 FIR_mult_42_G2_n75
*879 FIR_mult_42_G2_n74
*880 FIR_mult_42_G2_n73
*881 FIR_mult_42_G2_n69
*882 FIR_mult_42_G2_n68
*883 FIR_mult_42_G2_n56
*884 FIR_mult_42_G2_n55
*885 FIR_mult_42_G2_n54
*886 FIR_mult_42_G2_n53
*887 FIR_mult_42_G2_n52
*888 FIR_mult_42_G2_n51
*889 FIR_mult_42_G2_n50
*890 FIR_mult_42_G2_n49
*891 FIR_mult_42_G2_n48
*892 FIR_mult_42_G2_n47
*893 FIR_mult_42_G2_n46
*894 FIR_mult_42_G2_n45
*895 FIR_mult_42_G2_n44
*896 FIR_mult_42_G2_n43
*897 FIR_mult_42_G2_n42
*898 FIR_mult_42_G2_n41
*899 FIR_mult_42_G2_n40
*900 FIR_mult_42_G2_n39
*901 FIR_mult_42_G2_n38
*902 FIR_mult_42_G2_n37
*903 FIR_mult_42_G2_n36
*904 FIR_mult_42_G2_n35
*905 FIR_mult_42_G2_n34
*906 FIR_mult_42_G2_n33
*907 FIR_mult_42_G2_n32
*908 FIR_mult_42_G2_n30
*909 FIR_mult_42_G2_n29
*910 FIR_mult_42_G2_n28
*911 FIR_mult_42_G2_n27
*912 FIR_mult_42_G2_n26
*913 FIR_mult_42_G2_n25
*914 FIR_mult_42_G2_n24
*915 FIR_mult_42_G2_n23
*916 FIR_mult_42_G2_n21
*917 FIR_mult_42_G2_n20
*918 FIR_mult_42_G2_n19
*919 FIR_mult_42_G2_n18
*920 FIR_mult_42_G2_n17
*921 FIR_mult_42_G2_n16
*922 FIR_mult_42_G2_n9
*923 FIR_mult_42_G2_n8
*924 FIR_mult_42_G2_n7
*925 FIR_mult_42_G2_n6
*926 FIR_mult_42_G2_n5
*927 FIR_mult_42_G2_n4
*928 FIR_mult_42_G2_n3
*929 FIR_mult_42_G2_n2
*930 FIR_mult_42_G3_n274
*931 FIR_mult_42_G3_n273
*932 FIR_mult_42_G3_n272
*933 FIR_mult_42_G3_n271
*934 FIR_mult_42_G3_n270
*935 FIR_mult_42_G3_n269
*936 FIR_mult_42_G3_n268
*937 FIR_mult_42_G3_n267
*938 FIR_mult_42_G3_n266
*939 FIR_mult_42_G3_n265
*940 FIR_mult_42_G3_n264
*941 FIR_mult_42_G3_n263
*942 FIR_mult_42_G3_n262
*943 FIR_mult_42_G3_n261
*944 FIR_mult_42_G3_n260
*945 FIR_mult_42_G3_n259
*946 FIR_mult_42_G3_n258
*947 FIR_mult_42_G3_n257
*948 FIR_mult_42_G3_n256
*949 FIR_mult_42_G3_n255
*950 FIR_mult_42_G3_n254
*951 FIR_mult_42_G3_n253
*952 FIR_mult_42_G3_n252
*953 FIR_mult_42_G3_n251
*954 FIR_mult_42_G3_n250
*955 FIR_mult_42_G3_n249
*956 FIR_mult_42_G3_n248
*957 FIR_mult_42_G3_n247
*958 FIR_mult_42_G3_n246
*959 FIR_mult_42_G3_n245
*960 FIR_mult_42_G3_n244
*961 FIR_mult_42_G3_n243
*962 FIR_mult_42_G3_n242
*963 FIR_mult_42_G3_n241
*964 FIR_mult_42_G3_n240
*965 FIR_mult_42_G3_n239
*966 FIR_mult_42_G3_n238
*967 FIR_mult_42_G3_n237
*968 FIR_mult_42_G3_n236
*969 FIR_mult_42_G3_n235
*970 FIR_mult_42_G3_n234
*971 FIR_mult_42_G3_n233
*972 FIR_mult_42_G3_n232
*973 FIR_mult_42_G3_n231
*974 FIR_mult_42_G3_n230
*975 FIR_mult_42_G3_n229
*976 FIR_mult_42_G3_n228
*977 FIR_mult_42_G3_n227
*978 FIR_mult_42_G3_n226
*979 FIR_mult_42_G3_n225
*980 FIR_mult_42_G3_n224
*981 FIR_mult_42_G3_n223
*982 FIR_mult_42_G3_n222
*983 FIR_mult_42_G3_n221
*984 FIR_mult_42_G3_n220
*985 FIR_mult_42_G3_n219
*986 FIR_mult_42_G3_n218
*987 FIR_mult_42_G3_n217
*988 FIR_mult_42_G3_n216
*989 FIR_mult_42_G3_n215
*990 FIR_mult_42_G3_n214
*991 FIR_mult_42_G3_n213
*992 FIR_mult_42_G3_n212
*993 FIR_mult_42_G3_n211
*994 FIR_mult_42_G3_n210
*995 FIR_mult_42_G3_n209
*996 FIR_mult_42_G3_n208
*997 FIR_mult_42_G3_n207
*998 FIR_mult_42_G3_n206
*999 FIR_mult_42_G3_n205
*1000 FIR_mult_42_G3_n204
*1001 FIR_mult_42_G3_n203
*1002 FIR_mult_42_G3_n202
*1003 FIR_mult_42_G3_n201
*1004 FIR_mult_42_G3_n200
*1005 FIR_mult_42_G3_n199
*1006 FIR_mult_42_G3_n198
*1007 FIR_mult_42_G3_n197
*1008 FIR_mult_42_G3_n101
*1009 FIR_mult_42_G3_n100
*1010 FIR_mult_42_G3_n99
*1011 FIR_mult_42_G3_n98
*1012 FIR_mult_42_G3_n97
*1013 FIR_mult_42_G3_n94
*1014 FIR_mult_42_G3_n93
*1015 FIR_mult_42_G3_n92
*1016 FIR_mult_42_G3_n91
*1017 FIR_mult_42_G3_n90
*1018 FIR_mult_42_G3_n88
*1019 FIR_mult_42_G3_n87
*1020 FIR_mult_42_G3_n86
*1021 FIR_mult_42_G3_n85
*1022 FIR_mult_42_G3_n84
*1023 FIR_mult_42_G3_n83
*1024 FIR_mult_42_G3_n82
*1025 FIR_mult_42_G3_n81
*1026 FIR_mult_42_G3_n79
*1027 FIR_mult_42_G3_n78
*1028 FIR_mult_42_G3_n76
*1029 FIR_mult_42_G3_n75
*1030 FIR_mult_42_G3_n74
*1031 FIR_mult_42_G3_n73
*1032 FIR_mult_42_G3_n69
*1033 FIR_mult_42_G3_n68
*1034 FIR_mult_42_G3_n56
*1035 FIR_mult_42_G3_n55
*1036 FIR_mult_42_G3_n54
*1037 FIR_mult_42_G3_n53
*1038 FIR_mult_42_G3_n52
*1039 FIR_mult_42_G3_n51
*1040 FIR_mult_42_G3_n50
*1041 FIR_mult_42_G3_n49
*1042 FIR_mult_42_G3_n48
*1043 FIR_mult_42_G3_n47
*1044 FIR_mult_42_G3_n46
*1045 FIR_mult_42_G3_n45
*1046 FIR_mult_42_G3_n44
*1047 FIR_mult_42_G3_n43
*1048 FIR_mult_42_G3_n42
*1049 FIR_mult_42_G3_n41
*1050 FIR_mult_42_G3_n40
*1051 FIR_mult_42_G3_n39
*1052 FIR_mult_42_G3_n38
*1053 FIR_mult_42_G3_n37
*1054 FIR_mult_42_G3_n36
*1055 FIR_mult_42_G3_n35
*1056 FIR_mult_42_G3_n34
*1057 FIR_mult_42_G3_n33
*1058 FIR_mult_42_G3_n32
*1059 FIR_mult_42_G3_n30
*1060 FIR_mult_42_G3_n29
*1061 FIR_mult_42_G3_n28
*1062 FIR_mult_42_G3_n27
*1063 FIR_mult_42_G3_n26
*1064 FIR_mult_42_G3_n25
*1065 FIR_mult_42_G3_n24
*1066 FIR_mult_42_G3_n23
*1067 FIR_mult_42_G3_n21
*1068 FIR_mult_42_G3_n20
*1069 FIR_mult_42_G3_n19
*1070 FIR_mult_42_G3_n18
*1071 FIR_mult_42_G3_n17
*1072 FIR_mult_42_G3_n16
*1073 FIR_mult_42_G3_n9
*1074 FIR_mult_42_G3_n8
*1075 FIR_mult_42_G3_n7
*1076 FIR_mult_42_G3_n6
*1077 FIR_mult_42_G3_n5
*1078 FIR_mult_42_G3_n4
*1079 FIR_mult_42_G3_n3
*1080 FIR_mult_42_G3_n2
*1081 FIR_mult_42_G4_n274
*1082 FIR_mult_42_G4_n273
*1083 FIR_mult_42_G4_n272
*1084 FIR_mult_42_G4_n271
*1085 FIR_mult_42_G4_n270
*1086 FIR_mult_42_G4_n269
*1087 FIR_mult_42_G4_n268
*1088 FIR_mult_42_G4_n267
*1089 FIR_mult_42_G4_n266
*1090 FIR_mult_42_G4_n265
*1091 FIR_mult_42_G4_n264
*1092 FIR_mult_42_G4_n263
*1093 FIR_mult_42_G4_n262
*1094 FIR_mult_42_G4_n261
*1095 FIR_mult_42_G4_n260
*1096 FIR_mult_42_G4_n259
*1097 FIR_mult_42_G4_n258
*1098 FIR_mult_42_G4_n257
*1099 FIR_mult_42_G4_n256
*1100 FIR_mult_42_G4_n255
*1101 FIR_mult_42_G4_n254
*1102 FIR_mult_42_G4_n253
*1103 FIR_mult_42_G4_n252
*1104 FIR_mult_42_G4_n251
*1105 FIR_mult_42_G4_n250
*1106 FIR_mult_42_G4_n249
*1107 FIR_mult_42_G4_n248
*1108 FIR_mult_42_G4_n247
*1109 FIR_mult_42_G4_n246
*1110 FIR_mult_42_G4_n245
*1111 FIR_mult_42_G4_n244
*1112 FIR_mult_42_G4_n243
*1113 FIR_mult_42_G4_n242
*1114 FIR_mult_42_G4_n241
*1115 FIR_mult_42_G4_n240
*1116 FIR_mult_42_G4_n239
*1117 FIR_mult_42_G4_n238
*1118 FIR_mult_42_G4_n237
*1119 FIR_mult_42_G4_n236
*1120 FIR_mult_42_G4_n235
*1121 FIR_mult_42_G4_n234
*1122 FIR_mult_42_G4_n233
*1123 FIR_mult_42_G4_n232
*1124 FIR_mult_42_G4_n231
*1125 FIR_mult_42_G4_n230
*1126 FIR_mult_42_G4_n229
*1127 FIR_mult_42_G4_n228
*1128 FIR_mult_42_G4_n227
*1129 FIR_mult_42_G4_n226
*1130 FIR_mult_42_G4_n225
*1131 FIR_mult_42_G4_n224
*1132 FIR_mult_42_G4_n223
*1133 FIR_mult_42_G4_n222
*1134 FIR_mult_42_G4_n221
*1135 FIR_mult_42_G4_n220
*1136 FIR_mult_42_G4_n219
*1137 FIR_mult_42_G4_n218
*1138 FIR_mult_42_G4_n217
*1139 FIR_mult_42_G4_n216
*1140 FIR_mult_42_G4_n215
*1141 FIR_mult_42_G4_n214
*1142 FIR_mult_42_G4_n213
*1143 FIR_mult_42_G4_n212
*1144 FIR_mult_42_G4_n211
*1145 FIR_mult_42_G4_n210
*1146 FIR_mult_42_G4_n209
*1147 FIR_mult_42_G4_n208
*1148 FIR_mult_42_G4_n207
*1149 FIR_mult_42_G4_n206
*1150 FIR_mult_42_G4_n205
*1151 FIR_mult_42_G4_n204
*1152 FIR_mult_42_G4_n203
*1153 FIR_mult_42_G4_n202
*1154 FIR_mult_42_G4_n201
*1155 FIR_mult_42_G4_n200
*1156 FIR_mult_42_G4_n199
*1157 FIR_mult_42_G4_n198
*1158 FIR_mult_42_G4_n197
*1159 FIR_mult_42_G4_n101
*1160 FIR_mult_42_G4_n100
*1161 FIR_mult_42_G4_n99
*1162 FIR_mult_42_G4_n98
*1163 FIR_mult_42_G4_n97
*1164 FIR_mult_42_G4_n94
*1165 FIR_mult_42_G4_n93
*1166 FIR_mult_42_G4_n92
*1167 FIR_mult_42_G4_n91
*1168 FIR_mult_42_G4_n90
*1169 FIR_mult_42_G4_n88
*1170 FIR_mult_42_G4_n87
*1171 FIR_mult_42_G4_n86
*1172 FIR_mult_42_G4_n85
*1173 FIR_mult_42_G4_n84
*1174 FIR_mult_42_G4_n83
*1175 FIR_mult_42_G4_n82
*1176 FIR_mult_42_G4_n81
*1177 FIR_mult_42_G4_n79
*1178 FIR_mult_42_G4_n78
*1179 FIR_mult_42_G4_n76
*1180 FIR_mult_42_G4_n75
*1181 FIR_mult_42_G4_n74
*1182 FIR_mult_42_G4_n73
*1183 FIR_mult_42_G4_n69
*1184 FIR_mult_42_G4_n68
*1185 FIR_mult_42_G4_n56
*1186 FIR_mult_42_G4_n55
*1187 FIR_mult_42_G4_n54
*1188 FIR_mult_42_G4_n53
*1189 FIR_mult_42_G4_n52
*1190 FIR_mult_42_G4_n51
*1191 FIR_mult_42_G4_n50
*1192 FIR_mult_42_G4_n49
*1193 FIR_mult_42_G4_n48
*1194 FIR_mult_42_G4_n47
*1195 FIR_mult_42_G4_n46
*1196 FIR_mult_42_G4_n45
*1197 FIR_mult_42_G4_n44
*1198 FIR_mult_42_G4_n43
*1199 FIR_mult_42_G4_n42
*1200 FIR_mult_42_G4_n41
*1201 FIR_mult_42_G4_n40
*1202 FIR_mult_42_G4_n39
*1203 FIR_mult_42_G4_n38
*1204 FIR_mult_42_G4_n37
*1205 FIR_mult_42_G4_n36
*1206 FIR_mult_42_G4_n35
*1207 FIR_mult_42_G4_n34
*1208 FIR_mult_42_G4_n33
*1209 FIR_mult_42_G4_n32
*1210 FIR_mult_42_G4_n30
*1211 FIR_mult_42_G4_n29
*1212 FIR_mult_42_G4_n28
*1213 FIR_mult_42_G4_n27
*1214 FIR_mult_42_G4_n26
*1215 FIR_mult_42_G4_n25
*1216 FIR_mult_42_G4_n24
*1217 FIR_mult_42_G4_n23
*1218 FIR_mult_42_G4_n21
*1219 FIR_mult_42_G4_n20
*1220 FIR_mult_42_G4_n19
*1221 FIR_mult_42_G4_n18
*1222 FIR_mult_42_G4_n17
*1223 FIR_mult_42_G4_n16
*1224 FIR_mult_42_G4_n9
*1225 FIR_mult_42_G4_n8
*1226 FIR_mult_42_G4_n7
*1227 FIR_mult_42_G4_n6
*1228 FIR_mult_42_G4_n5
*1229 FIR_mult_42_G4_n4
*1230 FIR_mult_42_G4_n3
*1231 FIR_mult_42_G4_n2
*1232 FIR_mult_42_G5_n274
*1233 FIR_mult_42_G5_n273
*1234 FIR_mult_42_G5_n272
*1235 FIR_mult_42_G5_n271
*1236 FIR_mult_42_G5_n270
*1237 FIR_mult_42_G5_n269
*1238 FIR_mult_42_G5_n268
*1239 FIR_mult_42_G5_n267
*1240 FIR_mult_42_G5_n266
*1241 FIR_mult_42_G5_n265
*1242 FIR_mult_42_G5_n264
*1243 FIR_mult_42_G5_n263
*1244 FIR_mult_42_G5_n262
*1245 FIR_mult_42_G5_n261
*1246 FIR_mult_42_G5_n260
*1247 FIR_mult_42_G5_n259
*1248 FIR_mult_42_G5_n258
*1249 FIR_mult_42_G5_n257
*1250 FIR_mult_42_G5_n256
*1251 FIR_mult_42_G5_n255
*1252 FIR_mult_42_G5_n254
*1253 FIR_mult_42_G5_n253
*1254 FIR_mult_42_G5_n252
*1255 FIR_mult_42_G5_n251
*1256 FIR_mult_42_G5_n250
*1257 FIR_mult_42_G5_n249
*1258 FIR_mult_42_G5_n248
*1259 FIR_mult_42_G5_n247
*1260 FIR_mult_42_G5_n246
*1261 FIR_mult_42_G5_n245
*1262 FIR_mult_42_G5_n244
*1263 FIR_mult_42_G5_n243
*1264 FIR_mult_42_G5_n242
*1265 FIR_mult_42_G5_n241
*1266 FIR_mult_42_G5_n240
*1267 FIR_mult_42_G5_n239
*1268 FIR_mult_42_G5_n238
*1269 FIR_mult_42_G5_n237
*1270 FIR_mult_42_G5_n236
*1271 FIR_mult_42_G5_n235
*1272 FIR_mult_42_G5_n234
*1273 FIR_mult_42_G5_n233
*1274 FIR_mult_42_G5_n232
*1275 FIR_mult_42_G5_n231
*1276 FIR_mult_42_G5_n230
*1277 FIR_mult_42_G5_n229
*1278 FIR_mult_42_G5_n228
*1279 FIR_mult_42_G5_n227
*1280 FIR_mult_42_G5_n226
*1281 FIR_mult_42_G5_n225
*1282 FIR_mult_42_G5_n224
*1283 FIR_mult_42_G5_n223
*1284 FIR_mult_42_G5_n222
*1285 FIR_mult_42_G5_n221
*1286 FIR_mult_42_G5_n220
*1287 FIR_mult_42_G5_n219
*1288 FIR_mult_42_G5_n218
*1289 FIR_mult_42_G5_n217
*1290 FIR_mult_42_G5_n216
*1291 FIR_mult_42_G5_n215
*1292 FIR_mult_42_G5_n214
*1293 FIR_mult_42_G5_n213
*1294 FIR_mult_42_G5_n212
*1295 FIR_mult_42_G5_n211
*1296 FIR_mult_42_G5_n210
*1297 FIR_mult_42_G5_n209
*1298 FIR_mult_42_G5_n208
*1299 FIR_mult_42_G5_n207
*1300 FIR_mult_42_G5_n206
*1301 FIR_mult_42_G5_n205
*1302 FIR_mult_42_G5_n204
*1303 FIR_mult_42_G5_n203
*1304 FIR_mult_42_G5_n202
*1305 FIR_mult_42_G5_n201
*1306 FIR_mult_42_G5_n200
*1307 FIR_mult_42_G5_n199
*1308 FIR_mult_42_G5_n198
*1309 FIR_mult_42_G5_n197
*1310 FIR_mult_42_G5_n101
*1311 FIR_mult_42_G5_n100
*1312 FIR_mult_42_G5_n99
*1313 FIR_mult_42_G5_n98
*1314 FIR_mult_42_G5_n97
*1315 FIR_mult_42_G5_n94
*1316 FIR_mult_42_G5_n93
*1317 FIR_mult_42_G5_n92
*1318 FIR_mult_42_G5_n91
*1319 FIR_mult_42_G5_n90
*1320 FIR_mult_42_G5_n88
*1321 FIR_mult_42_G5_n87
*1322 FIR_mult_42_G5_n86
*1323 FIR_mult_42_G5_n85
*1324 FIR_mult_42_G5_n84
*1325 FIR_mult_42_G5_n83
*1326 FIR_mult_42_G5_n82
*1327 FIR_mult_42_G5_n81
*1328 FIR_mult_42_G5_n79
*1329 FIR_mult_42_G5_n78
*1330 FIR_mult_42_G5_n76
*1331 FIR_mult_42_G5_n75
*1332 FIR_mult_42_G5_n74
*1333 FIR_mult_42_G5_n73
*1334 FIR_mult_42_G5_n69
*1335 FIR_mult_42_G5_n68
*1336 FIR_mult_42_G5_n56
*1337 FIR_mult_42_G5_n55
*1338 FIR_mult_42_G5_n54
*1339 FIR_mult_42_G5_n53
*1340 FIR_mult_42_G5_n52
*1341 FIR_mult_42_G5_n51
*1342 FIR_mult_42_G5_n50
*1343 FIR_mult_42_G5_n49
*1344 FIR_mult_42_G5_n48
*1345 FIR_mult_42_G5_n47
*1346 FIR_mult_42_G5_n46
*1347 FIR_mult_42_G5_n45
*1348 FIR_mult_42_G5_n44
*1349 FIR_mult_42_G5_n43
*1350 FIR_mult_42_G5_n42
*1351 FIR_mult_42_G5_n41
*1352 FIR_mult_42_G5_n40
*1353 FIR_mult_42_G5_n39
*1354 FIR_mult_42_G5_n38
*1355 FIR_mult_42_G5_n37
*1356 FIR_mult_42_G5_n36
*1357 FIR_mult_42_G5_n35
*1358 FIR_mult_42_G5_n34
*1359 FIR_mult_42_G5_n33
*1360 FIR_mult_42_G5_n32
*1361 FIR_mult_42_G5_n30
*1362 FIR_mult_42_G5_n29
*1363 FIR_mult_42_G5_n28
*1364 FIR_mult_42_G5_n27
*1365 FIR_mult_42_G5_n26
*1366 FIR_mult_42_G5_n25
*1367 FIR_mult_42_G5_n24
*1368 FIR_mult_42_G5_n23
*1369 FIR_mult_42_G5_n21
*1370 FIR_mult_42_G5_n20
*1371 FIR_mult_42_G5_n19
*1372 FIR_mult_42_G5_n18
*1373 FIR_mult_42_G5_n17
*1374 FIR_mult_42_G5_n16
*1375 FIR_mult_42_G5_n9
*1376 FIR_mult_42_G5_n8
*1377 FIR_mult_42_G5_n7
*1378 FIR_mult_42_G5_n6
*1379 FIR_mult_42_G5_n5
*1380 FIR_mult_42_G5_n4
*1381 FIR_mult_42_G5_n3
*1382 FIR_mult_42_G5_n2
*1383 FIR_mult_42_G6_n274
*1384 FIR_mult_42_G6_n273
*1385 FIR_mult_42_G6_n272
*1386 FIR_mult_42_G6_n271
*1387 FIR_mult_42_G6_n270
*1388 FIR_mult_42_G6_n269
*1389 FIR_mult_42_G6_n268
*1390 FIR_mult_42_G6_n267
*1391 FIR_mult_42_G6_n266
*1392 FIR_mult_42_G6_n265
*1393 FIR_mult_42_G6_n264
*1394 FIR_mult_42_G6_n263
*1395 FIR_mult_42_G6_n262
*1396 FIR_mult_42_G6_n261